1A0G_PMP_A_285


 21 21  0  0  0  0  0  0  0  0999 V2000
   33.1346   11.4868   -9.0681 N   0  0  0  0  0  0  0  0  0  0  0  0
   32.4817   11.0248   -7.9693 C   0  0  0  0  0  0  0  0  0  0  0  0
   31.8275   11.9966   -7.0491 C   0  0  0  0  0  0  0  0  0  0  0  0
   32.4331    9.6476   -7.7103 C   0  0  0  0  0  0  0  0  0  0  0  0
   31.7721    9.1682   -6.5825 O   0  0  0  0  0  0  0  0  0  0  0  0
   33.0575    8.7582   -8.5994 C   0  0  0  0  0  0  0  0  0  0  0  0
   33.7226    9.2669   -9.7300 C   0  0  0  0  0  0  0  0  0  0  0  0
   33.7505   10.6468   -9.9406 C   0  0  0  0  0  0  0  0  0  0  0  0
   31.3573    9.7667   -5.9928 H   0  0  0  0  0  0  0  0  0  0  0  0
   33.0331    7.2869   -8.3208 C   0  0  0  0  0  0  0  0  0  0  0  0
   34.0481    6.9552   -7.3362 N   0  0  0  0  0  0  0  0  0  0  0  0
   34.9673    7.2128   -7.6955 H   0  0  0  0  0  0  0  0  0  0  0  0
   34.0250    5.9529   -7.1485 H   0  0  0  0  0  0  0  0  0  0  0  0
   34.4323    8.3749  -10.6941 C   0  0  0  0  0  0  0  0  0  0  0  0
   35.8108    8.4646  -10.4911 O   0  0  0  0  0  0  0  0  0  0  0  0
   36.4034    6.8986  -10.7531 P   0  0  0  0  0  0  0  0  0  0  0  0
   37.7997    6.7958  -10.1841 O   0  0  0  0  0  0  0  0  0  0  0  0
   36.4544    6.5716  -12.4126 O   0  0  0  0  0  0  0  0  0  0  0  0
   35.4063    5.7676   -9.9850 O   0  0  0  0  0  0  0  0  0  0  0  0
   37.0261    7.2201  -12.8525 H   0  0  0  0  0  0  0  0  0  0  0  0
   35.3773    5.9554   -9.0338 H   0  0  0  0  0  0  0  0  0  0  0  0
  1  2  2  0  0  0
  1  8  1  0  0  0
  2  3  1  0  0  0
  2  4  1  0  0  0
  4  5  1  0  0  0
  4  6  2  0  0  0
  6 10  1  0  0  0
  6  7  1  0  0  0
 10 11  1  0  0  0
  7  8  2  0  0  0
  7 14  1  0  0  0
 14 15  1  0  0  0
 15 16  1  0  0  0
 16 17  2  0  0  0
 16 18  1  0  0  0
 16 19  1  0  0  0
  5  9  1  0  0  0
 11 12  1  0  0  0
 11 13  1  0  0  0
 18 20  1  0  0  0
 19 21  1  0  0  0
M  END
> <minimizedAffinity>
-7.16148

$$$$
